vis_n_react/backend/data/123wCoordinates/IEEE-123_Dynamic_fixed.glm
clock {
	timezone PST+8PDT;
	starttime "2001-08-01 12:00:00 PST";
	stoptime "2001-08-01 12:00:20 PST";
};

#set suppress_repeat_messages=1;
#set relax_naming_rules=1;
#set profiler=1;
#set pauseatexit=1;
#set double_format=%+.12lg;
#set complex_format=%+.12lg%+.12lg%c;
#set deltamode_timestep=100000000;
#set deltamode_maximumtime=60000000000;
#set deltamode_iteration_limit=10;

#define rotor_convergence=0.00000000000001;




module tape {
};

module reliability {
	enable_subsecond_models true;
	maximum_event_length 1800000;
	report_event_log true;
};

module powerflow {
	enable_subsecond_models true;
	deltamode_timestep "2 ms";
	solver_method NR;
	all_powerflow_delta true;
};

module generators {
	enable_subsecond_models true;
	deltamode_timestep "2 ms";
};

#include "IEEE-123_Diesels_fixed.glm";
#include "IEEE-123_Inverters_fixed.glm";

object overhead_line_conductor:10001 {
	geometric_mean_radius 0.0244;
	resistance 0.30600;
};

object overhead_line_conductor:10009 {
	geometric_mean_radius 0.004460;
	resistance 1.12000;
};

object overhead_line_conductor:10002 {
	geometric_mean_radius 0.008140;
	resistance 0.59200;
};

object underground_line_conductor:10003 {
	outer_diameter 1.060000;
	conductor_gmr 0.011100;
	conductor_diameter 0.368000;
	conductor_resistance 0.970000;
	neutral_gmr 0.011100;
	neutral_resistance 0.970000;
	neutral_diameter 0.0640837;
	neutral_strands 6.000000;
	shield_gmr 0.000000;
	shield_resistance 0.000000;
};

object line_spacing:5001 {
	distance_AB 2.5;
	distance_AC 7.0;
	distance_BC 4.5;
	distance_AN 5.656854;
	distance_BN 4.272002;
	distance_CN 5.0;
};

object line_spacing:5002 {
	distance_AB 4.5;
	distance_AC 2.5;
	distance_BC 7.0;
	distance_AN 5.0;
	distance_BN 4.272002;
	distance_CN 5.656854;
};

object line_spacing:5003 {
	distance_AB 7.0;
	distance_AC 4.5;
	distance_BC 2.5;
	distance_AN 5.0;
	distance_BN 5.656854;
	distance_CN 4.272002;
};

object line_spacing:5004 {
	distance_AB 4.5;
	distance_AC 7.0;
	distance_BC 2.5;
	distance_AN 5.0;
	distance_BN 4.272002;
	distance_CN 5.656854;
};

object line_spacing:5005 {
	distance_AB 2.5;
	distance_AC 4.5;
	distance_BC 7.0;
	distance_BN 5.656854;
	distance_AN 4.272002;
	distance_CN 5.0;
};

object line_spacing:5006 {
	distance_AB 7.0;
	distance_AC 2.5;
	distance_BC 4.5;
	distance_AN 5.656854;
	distance_CN 4.272002;
	distance_BN 5.0;
};

object line_spacing:5007 {
	distance_AB 0.0;
	distance_AC 7.0;
	distance_BC 0.0;
	distance_AN 5.656854;
	distance_BN 0.0;
	distance_CN 5.0;
};

object line_spacing:5008 {
	distance_AB 7.0;
	distance_AC 0.0;
	distance_BC 0.0;
	distance_AN 5.656854;
	distance_BN 5.0;
	distance_CN 0.0;
};

object line_spacing:5009 {
	distance_AB 0.0;
	distance_AC 0.0;
	distance_BC 0.0;
	distance_AN 5.0;
	distance_BN 0.0;
	distance_CN 0.0;
};

object line_spacing:50010 {
	distance_AB 0.0;
	distance_AC 0.0;
	distance_BC 0.0;
	distance_AN 0.0;
	distance_BN 5.0;
	distance_CN 0.0;
};

object line_spacing:50011 {
	distance_AB 0.0;
	distance_AC 0.0;
	distance_BC 0.0;
	distance_AN 0.0;
	distance_BN 0.0;
	distance_CN 5.0;
};

object line_spacing:50012 {
	distance_AB 0.5;
	distance_AC 1.0;
	distance_BC 0.5;
	distance_AN 0.0;
	distance_BN 0.0;
	distance_CN 0.0;
};

object line_configuration:1001 {
	conductor_A overhead_line_conductor:10001;
	conductor_B overhead_line_conductor:10001;
	conductor_C overhead_line_conductor:10001;
	conductor_N overhead_line_conductor:10002;
	spacing line_spacing:5001;
};

object line_configuration:1002 {
	conductor_A overhead_line_conductor:10001;
	conductor_B overhead_line_conductor:10001;
	conductor_C overhead_line_conductor:10001;
	conductor_N overhead_line_conductor:10002;
	spacing line_spacing:5002;
};

object line_configuration:1003 {
	conductor_A overhead_line_conductor:10001;
	conductor_B overhead_line_conductor:10001;
	conductor_C overhead_line_conductor:10001;
	conductor_N overhead_line_conductor:10002;
	spacing line_spacing:5003;
};

object line_configuration:1004 {
	conductor_A overhead_line_conductor:10001;
	conductor_B overhead_line_conductor:10001;
	conductor_C overhead_line_conductor:10001;
	conductor_N overhead_line_conductor:10002;
	spacing line_spacing:5004;
};

object line_configuration:1005 {
	conductor_A overhead_line_conductor:10001;
	conductor_B overhead_line_conductor:10001;
	conductor_C overhead_line_conductor:10001;
	conductor_N overhead_line_conductor:10002;
	spacing line_spacing:5005;
};

object line_configuration:1006 {
	conductor_A overhead_line_conductor:10001;
	conductor_B overhead_line_conductor:10001;
	conductor_C overhead_line_conductor:10001;
	conductor_N overhead_line_conductor:10002;
	spacing line_spacing:5006;
};

object line_configuration:1007 {
	conductor_A overhead_line_conductor:10001;
	conductor_C overhead_line_conductor:10001;
	conductor_N overhead_line_conductor:10002;
	spacing line_spacing:5007;
};

object line_configuration:1008 {
	conductor_A overhead_line_conductor:10001;
	conductor_B overhead_line_conductor:10001;
	conductor_N overhead_line_conductor:10002;
	spacing line_spacing:5008;
};

object line_configuration:1009 {
	conductor_A overhead_line_conductor:10009;
	conductor_N overhead_line_conductor:10009;
	spacing line_spacing:5009;
};

object line_configuration:10010 {
	conductor_B overhead_line_conductor:10009;
	conductor_N overhead_line_conductor:10009;
	spacing line_spacing:50010;
};

object line_configuration:10011 {
	conductor_C overhead_line_conductor:10009;
	conductor_N overhead_line_conductor:10009;
	spacing line_spacing:50011;
};

object line_configuration:10012 {
	conductor_A underground_line_conductor:10003;
	conductor_B underground_line_conductor:10003;
	conductor_C underground_line_conductor:10003;
	spacing line_spacing:50012;
};

object overhead_line {
	phases BN;
	name 1-2;
	from load:1;
	to load:2;
	length 175;
	configuration line_configuration:10010;
};

object overhead_line {
	phases CN;
	name 1-3;
	from load:1;
	to node:3;
	length 250;
	configuration line_configuration:10011;
};

object overhead_line {
	phases ABCN;
	name 1-7;
	from load:1;
	to load:7;
	length 300;
	configuration line_configuration:1001;
};

object overhead_line {
	phases CN;
	name 3-4;
	from node:3;
	to load:4;
	length 200;
	configuration line_configuration:10011;
};

object overhead_line {
	phases CN;
	name 3-5;
	from node:3;
	to load:5;
	length 325;
	configuration line_configuration:10011;
};

object overhead_line {
	phases CN;
	name 5-6;
	from load:5;
	to load:6;
	length 250;
	configuration line_configuration:10011;
};

object overhead_line {
	phases ABCN;
	name 7-8;
	from load:7;
	to node:8;
	length 200;
	configuration line_configuration:1001;
};

object overhead_line {
	phases BN;
	name 8-12;
	from node:8;
	to load:12;
	length 225;
	configuration line_configuration:10010;
};

object overhead_line {
	phases AN;
	name 8-9;
	from node:8;
	to load:9;
	length 225;
	configuration line_configuration:1009;
};

object overhead_line {
	phases ABCN;
	name 8-13;
	from node:8;
	to meter:13;
	length 300;
	configuration line_configuration:1001;
};

object overhead_line {
	phases AN;
	name 1401-14;
	from node:1401;
	to node:14;
	length 425;
	configuration line_configuration:1009;
};

object overhead_line {
	phases CN;
	name 13-34;
	from meter:13;
	to load:34;
	length 150;
	configuration line_configuration:10011;
};

object overhead_line {
	phases ABCN;
	name 13-18;
	from meter:13;
	to node:18;
	length 825;
	configuration line_configuration:1002;
};

object overhead_line {
	phases AN;
	name 14-11;
	from node:14;
	to load:11;
	length 250;
	configuration line_configuration:1009;
};

object overhead_line {
	phases AN;
	name 14-10;
	from node:14;
	to load:10;
	length 250;
	configuration line_configuration:1009;
};

object overhead_line {
	phases CN;
	name 15-16;
	from node:15;
	to load:16;
	length 375;
	configuration line_configuration:10011;
};

object overhead_line {
	phases CN;
	name 15-17;
	from node:15;
	to load:17;
	length 350;
	configuration line_configuration:10011;
};

object overhead_line {
	phases AN;
	name 18-19;
	from node:18;
	to load:19;
	length 250;
	configuration line_configuration:1009;
};

object overhead_line {
	phases ABCN;
	name 18-21;
	from node:18;
	to node:21;
	length 300;
	configuration line_configuration:1002;
};

object overhead_line {
	phases AN;
	name 19-20;
	from load:19;
	to load:20;
	length 325;
	configuration line_configuration:1009;
};

object overhead_line {
	phases BN;
	name 21-22;
	from node:21;
	to load:22;
	length 525;
	configuration line_configuration:10010;
};

object overhead_line {
	phases ABCN;
	name 21-23;
	from node:21;
	to node:23;
	length 250;
	configuration line_configuration:1002;
};

object overhead_line {
	phases CN;
	name 23-24;
	from node:23;
	to load:24;
	length 550;
	configuration line_configuration:10011;
};

object overhead_line {
	phases ABCN;
	name 23-25;
	from node:23;
	to node:25;
	length 275;
	configuration line_configuration:1002;
};

object overhead_line {
	phases ACN;
	name 2601-26;
	from node:2601;
	to node:26;
	length 350;
	configuration line_configuration:1007;
};

object overhead_line {
	phases ABCN;
	name 25-28;
	from node:25;
	to load:28;
	length 200;
	configuration line_configuration:1002;
};

object overhead_line {
	phases ACN;
	name 26-27;
	from node:26;
	to node:27;
	length 275;
	configuration line_configuration:1007;
};

object overhead_line {
	phases CN;
	name 26-31;
	from node:26;
	to load:31;
	length 225;
	configuration line_configuration:10011;
};

object overhead_line {
	phases AN;
	name 27-33;
	from node:27;
	to load:33;
	length 500;
	configuration line_configuration:1009;
};

object overhead_line {
	phases ABCN;
	name 28-29;
	from load:28;
	to load:29;
	length 300;
	configuration line_configuration:1002;
};

object overhead_line {
	phases ABCN;
	name 29-30;
	from load:29;
	to load:30;
	length 350;
	configuration line_configuration:1002;
};

object overhead_line {
	phases ABCN;
	name 30-250;
	from load:30;
	to node:250;
	length 200;
	configuration line_configuration:1002;
};

object overhead_line {
	phases CN;
	name 31-32;
	from load:31;
	to load:32;
	length 300;
	configuration line_configuration:10011;
};

object overhead_line {
	phases CN;
	name 34-15;
	from load:34;
	to node:15;
	length 100;
	configuration line_configuration:10011;
};

object overhead_line {
	phases ABN;
	name 35-36;
	from load:35;
	to node:36;
	length 650;
	configuration line_configuration:1008;
};

object overhead_line {
	phases ABCN;
	name 35-40;
	from load:35;
	to node:40;
	length 250;
	configuration line_configuration:1001;
};

object overhead_line {
	phases AN;
	name 36-37;
	from node:36;
	to load:37;
	length 300;
	configuration line_configuration:1009;
};

object overhead_line {
	phases BN;
	name 36-38;
	from node:36;
	to load:38;
	length 250;
	configuration line_configuration:10010;
};

object overhead_line {
	phases BN;
	name 38-39;
	from load:38;
	to load:39;
	length 325;
	configuration line_configuration:10010;
};

object overhead_line {
	phases CN;
	name 40-41;
	from node:40;
	to load:41;
	length 325;
	configuration line_configuration:10011;
};

object overhead_line {
	phases ABCN;
	name 40-42;
	from node:40;
	to load:42;
	length 250;
	configuration line_configuration:1001;
};

object overhead_line {
	phases BN;
	name 42-43;
	from load:42;
	to load:43;
	length 500;
	configuration line_configuration:10010;
};

object overhead_line {
	phases ABCN;
	name 42-44;
	from load:42;
	to node:44;
	length 200;
	configuration line_configuration:1001;
};

object overhead_line {
	phases AN;
	name 44-45;
	from node:44;
	to load:45;
	length 200;
	configuration line_configuration:1009;
};

object overhead_line {
	phases ABCN;
	name 44-47;
	from node:44;
	to load:47;
	length 250;
	configuration line_configuration:1001;
};

object overhead_line {
	phases AN;
	name 45-46;
	from load:45;
	to load:46;
	length 300;
	configuration line_configuration:1009;
};

object overhead_line {
	phases ABCN;
	name 47-48;
	from load:47;
	to load:48;
	length 150;
	configuration line_configuration:1004;
};

object overhead_line {
	phases ABCN;
	name 47-49;
	from load:47;
	to load:49;
	length 250;
	configuration line_configuration:1004;
};

object overhead_line {
	phases ABCN;
	name 49-50;
	from load:49;
	to meter:50;
	length 250;
	configuration line_configuration:1004;
};

object overhead_line {
	phases ABCN;
	name 50-51;
	from meter:50;
	to load:51;
	length 250;
	configuration line_configuration:1004;
};

object overhead_line {
	phases ABCN;
	name 51-151;
	from load:51;
	to node:151;
	length 700;
	configuration line_configuration:1004;
};

object overhead_line {
	phases ABCN;
	name 52-53;
	from load:52;
	to load:53;
	length 200;
	configuration line_configuration:1001;
};

object overhead_line {
	phases ABCN;
	name 53-54;
	from load:53;
	to node:54;
	length 125;
	configuration line_configuration:1001;
};

object overhead_line {
	phases ABCN;
	name 54-55;
	from node:54;
	to load:55;
	length 275;
	configuration line_configuration:1001;
};

object overhead_line {
	phases ABCN;
	name 54-57;
	from node:54;
	to node:57;
	length 350;
	configuration line_configuration:1003;
};

object overhead_line {
	phases ABCN;
	name 55-56;
	from load:55;
	to load:56;
	length 275;
	configuration line_configuration:1001;
};

object overhead_line {
	phases BN;
	name 57-58;
	from node:57;
	to load:58;
	length 250;
	configuration line_configuration:10010;
};

object overhead_line {
	phases ABCN;
	name 57-60;
	from node:57;
	to load:60;
	length 750;
	configuration line_configuration:1003;
};

object overhead_line {
	phases BN;
	name 58-59;
	from load:58;
	to load:59;
	length 250;
	configuration line_configuration:10010;
};

object overhead_line {
	phases ABCN;
	name 60-61;
	from load:60;
	to node:61;
	length 550;
	configuration line_configuration:1005;
};

object underground_line {
	phases ABC;
	name 60-62;
	from load:60;
	to load:62;
	length 250;
	configuration line_configuration:10012;
};

object underground_line {
	phases ABC;
	name 62-63;
	from load:62;
	to load:63;
	length 175;
	configuration line_configuration:10012;
};

object underground_line {
	phases ABC;
	name 63-64;
	from load:63;
	to load:64;
	length 350;
	configuration line_configuration:10012;
};

object underground_line {
	phases ABC;
	name 64-65;
	from load:64;
	to load:65;
	length 425;
	configuration line_configuration:10012;
};

object underground_line {
	phases ABC;
	name 65-66;
	from load:65;
	to meter:66;
	length 325;
	configuration line_configuration:10012;
};

object overhead_line {
	phases AN;
	name 67-68;
	from node:67;
	to load:68;
	length 200;
	configuration line_configuration:1009;
};

object overhead_line {
	phases ABCN;
	name 67-72;
	from node:67;
	to load:72;
	length 275;
	configuration line_configuration:1003;
};

object overhead_line {
	phases ABCN;
	name 67-97;
	from node:67;
	to node:97;
	length 250;
	configuration line_configuration:1003;
};

object overhead_line {
	phases AN;
	name 68-69;
	from load:68;
	to load:69;
	length 275;
	configuration line_configuration:1009;
};

object overhead_line {
	phases AN;
	name 69-70;
	from load:69;
	to load:70;
	length 325;
	configuration line_configuration:1009;
};

object overhead_line {
	phases AN;
	name 70-71;
	from load:70;
	to load:71;
	length 275;
	configuration line_configuration:1009;
};

object overhead_line {
	phases CN;
	name 72-73;
	from load:72;
	to load:73;
	length 275;
	configuration line_configuration:10011;
};

object overhead_line {
	phases ABCN;
	name 72-76;
	from load:72;
	to load:76;
	length 200;
	configuration line_configuration:1003;
};

object overhead_line {
	phases CN;
	name 73-74;
	from load:73;
	to load:74;
	length 350;
	configuration line_configuration:10011;
};

object overhead_line {
	phases CN;
	name 74-75;
	from load:74;
	to load:75;
	length 400;
	configuration line_configuration:10011;
};

object overhead_line {
	phases ABCN;
	name 76-77;
	from load:76;
	to load:77;
	length 400;
	configuration line_configuration:1006;
};

object overhead_line {
	phases ABCN;
	name 76-86;
	from load:76;
	to load:86;
	length 700;
	configuration line_configuration:1003;
};

object overhead_line {
	phases ABCN;
	name 77-78;
	from load:77;
	to node:78;
	length 100;
	configuration line_configuration:1006;
};

object overhead_line {
	phases ABCN;
	name 78-79;
	from node:78;
	to load:79;
	length 225;
	configuration line_configuration:1006;
};

object overhead_line {
	phases ABCN;
	name 78-80;
	from node:78;
	to load:80;
	length 475;
	configuration line_configuration:1006;
};

object overhead_line {
	phases ABCN;
	name 80-81;
	from load:80;
	to node:81;
	length 475;
	configuration line_configuration:1006;
};

object overhead_line {
	phases ABCN;
	name 81-82;
	from node:81;
	to load:82;
	length 250;
	configuration line_configuration:1006;
};

object overhead_line {
	phases CN;
	name 81-84;
	from node:81;
	to load:84;
	length 675;
	configuration line_configuration:10011;
};

object overhead_line {
	phases ABCN;
	name 82-83;
	from load:82;
	to load:83;
	length 250;
	configuration line_configuration:1006;
};

object overhead_line {
	phases CN;
	name 84-85;
	from load:84;
	to load:85;
	length 475;
	configuration line_configuration:10011;
};

object overhead_line {
	phases ABCN;
	name 86-87;
	from load:86;
	to load:87;
	length 450;
	configuration line_configuration:1006;
};

object overhead_line {
	phases AN;
	name 87-88;
	from load:87;
	to load:88;
	length 175;
	configuration line_configuration:1009;
};

object overhead_line {
	phases ABCN;
	name 87-89;
	from load:87;
	to node:89;
	length 275;
	configuration line_configuration:1006;
};

object overhead_line {
	phases BN;
	name 89-90;
	from node:89;
	to load:90;
	length 225;
	configuration line_configuration:10010;
};

object overhead_line {
	phases ABCN;
	name 89-91;
	from node:89;
	to node:91;
	length 225;
	configuration line_configuration:1006;
};

object overhead_line {
	phases CN;
	name 91-92;
	from node:91;
	to load:92;
	length 300;
	configuration line_configuration:10011;
};

object overhead_line {
	phases ABCN;
	name 91-93;
	from node:91;
	to node:93;
	length 225;
	configuration line_configuration:1006;
};

object overhead_line {
	phases AN;
	name 93-94;
	from node:93;
	to load:94;
	length 275;
	configuration line_configuration:1009;
};

object overhead_line {
	phases ABCN;
	name 93-95;
	from node:93;
	to load:95;
	length 300;
	configuration line_configuration:1006;
};

object overhead_line {
	phases BN;
	name 95-96;
	from load:95;
	to load:96;
	length 200;
	configuration line_configuration:10010;
};

object overhead_line {
	phases ABCN;
	name 97-98;
	from node:97;
	to load:98;
	length 275;
	configuration line_configuration:1003;
};

object overhead_line {
	phases ABCN;
	name 98-99;
	from load:98;
	to load:99;
	length 550;
	configuration line_configuration:1003;
};

object overhead_line {
	phases ABCN;
	name 99-100;
	from load:99;
	to load:100;
	length 300;
	configuration line_configuration:1003;
};

object overhead_line {
	phases ABCN;
	name 100-450;
	from load:100;
	to node:450;
	length 800;
	configuration line_configuration:1003;
};

object overhead_line {
	phases CN;
	name 101-102;
	from load:101;
	to load:102;
	length 225;
	configuration line_configuration:10011;
};

object overhead_line {
	phases ABCN;
	name 101-105;
	from load:101;
	to node:105;
	length 275;
	configuration line_configuration:1003;
};

object overhead_line {
	phases CN;
	name 102-103;
	from load:102;
	to load:103;
	length 325;
	configuration line_configuration:10011;
};

object overhead_line {
	phases CN;
	name 103-104;
	from load:103;
	to load:104;
	length 700;
	configuration line_configuration:10011;
};

object overhead_line {
	phases BN;
	name 105-106;
	from node:105;
	to load:106;
	length 225;
	configuration line_configuration:10010;
};

object overhead_line {
	phases ABCN;
	name 105-108;
	from node:105;
	to node:108;
	length 325;
	configuration line_configuration:1003;
};

object overhead_line {
	phases BN;
	name 106-107;
	from load:106;
	to load:107;
	length 575;
	configuration line_configuration:10010;
};

object overhead_line {
	phases AN;
	name 108-109;
	from node:108;
	to load:109;
	length 450;
	configuration line_configuration:1009;
};

object overhead_line {
	phases ABCN;
	name 108-300;
	from node:108;
	to meter:300;
	length 1000;
	configuration line_configuration:1003;
};

object overhead_line {
	phases AN;
	name 109-110;
	from load:109;
	to node:110;
	length 300;
	configuration line_configuration:1009;
};

object overhead_line {
	phases AN;
	name 110-111;
	from node:110;
	to load:111;
	length 575;
	configuration line_configuration:1009;
};

object overhead_line {
	phases AN;
	name 110-112;
	from node:110;
	to load:112;
	length 125;
	configuration line_configuration:1009;
};

object overhead_line {
	phases AN;
	name 112-113;
	from load:112;
	to load:113;
	length 525;
	configuration line_configuration:1009;
};

object overhead_line {
	phases AN;
	name 113-114;
	from load:113;
	to load:114;
	length 325;
	configuration line_configuration:1009;
};

object overhead_line {
	phases ABCN;
	name 135-35;
	from node:135;
	to load:35;
	length 375;
	configuration line_configuration:1004;
};

object overhead_line {
	phases ABCN;
	name 149-1;
	from node:149;
	to load:1;
	length 400;
	configuration line_configuration:1001;
};

object overhead_line {
	phases ABCN;
	name 152-52;
	from node:152;
	to load:52;
	length 400;
	configuration line_configuration:1001;
};

object overhead_line {
	phases ABCN;
	name 6701-67;
	from node:6701;
	to node:67;
	length 350;
	configuration line_configuration:1006;
};

object overhead_line {
	phases ABCN;
	name 197-101;
	from node:197;
	to load:101;
	length 250;
	configuration line_configuration:1003;
};

object node:3 {
	phases CN;
	name 3;
	flags DELTAMODE;
	voltage_A 2401.7771;
	voltage_B -1200.8886-2080.000j;
	voltage_C -1200.8886+2080.000j;
	nominal_voltage 2401.7771;
	x -2604;
	y 764;
};

object node:8 {
	phases ABCN;
	name 8;
	flags DELTAMODE;
	voltage_A 2401.7771;
	voltage_B -1200.8886-2080.000j;
	voltage_C -1200.8886+2080.000j;
	nominal_voltage 2401.7771;
	x -1756;
	y 732;
};

object meter:13 {
	phases ABCN;
	name 13;
	flags DELTAMODE;
	nominal_voltage 2401.7771;
	x -1468;
	y 540;
};

object node:14 {
	phases AN;
	name 14;
	flags DELTAMODE;
	voltage_A 2401.7771;
	voltage_B -1200.8886-2080.000j;
	voltage_C -1200.8886+2080.000j;
	nominal_voltage 2401.7771;
	x -1950;
	y 1515;
};

object node:1401 {
	phases AN;
	name 1401;
	flags DELTAMODE;
	voltage_A 2401.7771;
	voltage_B -1200.8886-2080.000j;
	voltage_C -1200.8886+2080.000j;
	nominal_voltage 2401.7771;
	x -1879;
	y 1265;
};

object node:15 {
	phases CN;
	name 15;
	flags DELTAMODE;
	voltage_A 2401.7771;
	voltage_B -1200.8886-2080.000j;
	voltage_C -1200.8886+2080.000j;
	nominal_voltage 2401.7771;
	x -1395;
	y 1053;
};

object node:18 {
	phases ABCN;
	name 18;
	flags DELTAMODE;
	voltage_A 2401.7771;
	voltage_B -1200.8886-2080.000j;
	voltage_C -1200.8886+2080.000j;
	nominal_voltage 2401.7771;
	x -1430;
	y 313;
};

object node:21 {
	phases ABCN;
	name 21;
	flags DELTAMODE;
	voltage_A 2401.7771;
	voltage_B -1200.8886-2080.000j;
	voltage_C -1200.8886+2080.000j;
	nominal_voltage 2401.7771;
	x -1628;
	y 58;
};

object node:23 {
	phases ABCN;
	name 23;
	flags DELTAMODE;
	voltage_A 2401.7771;
	voltage_B -1200.8886-2080.000j;
	voltage_C -1200.8886+2080.000j;
	nominal_voltage 2401.7771;
	x -1828;
	y -182;
};

object node:25 {
	phases ABCN;
	name 25;
	flags DELTAMODE;
	voltage_A 2401.7771;
	voltage_B -1200.8886-2080.000j;
	voltage_C -1200.8886+2080.000j;
	nominal_voltage 2401.7771;
	x -2019;
	y -413;
};

object node:26 {
	phases ACN;
	name 26;
	flags DELTAMODE;
	voltage_A 2401.7771;
	voltage_B -1200.8886-2080.000j;
	voltage_C -1200.8886+2080.000j;
	nominal_voltage 2401.7771;
	x -2529;
	y -587;
};

object node:2601 {
	phases ACN;
	name 2601;
	flags DELTAMODE;
	voltage_A 2401.7771;
	voltage_B -1200.8886-2080.000j;
	voltage_C -1200.8886+2080.000j;
	nominal_voltage 2401.7771;
	x -2278;
	y -497;
};

object node:27 {
	phases ACN;
	name 27;
	flags DELTAMODE;
	voltage_A 2401.7771;
	voltage_B -1200.8886-2080.000j;
	voltage_C -1200.8886+2080.000j;
	nominal_voltage 2401.7771;
	x -2770;
	y -530;
};

object node:36 {
	phases ABN;
	name 36;
	flags DELTAMODE;
	voltage_A 2401.7771;
	voltage_B -1200.8886-2080.000j;
	voltage_C -1200.8886+2080.000j;
	nominal_voltage 2401.7771;
	x -778;
	y 632;
};

object node:40 {
	phases ABCN;
	name 40;
	flags DELTAMODE;
	voltage_A 2401.7771;
	voltage_B -1200.8886-2080.000j;
	voltage_C -1200.8886+2080.000j;
	nominal_voltage 2401.7771;
	x -744;
	y 1040;
};

object node:44 {
	phases ABCN;
	name 44;
	flags DELTAMODE;
	voltage_A 2401.7771;
	voltage_B -1200.8886-2080.000j;
	voltage_C -1200.8886+2080.000j;
	nominal_voltage 2401.7771;
	x -242;
	y 1445;
};

object node:54 {
	phases ABCN;
	name 54;
	flags DELTAMODE;
	voltage_A 2401.7771;
	voltage_B -1200.8886-2080.000j;
	voltage_C -1200.8886+2080.000j;
	nominal_voltage 2401.7771;
	x -449;
	y -463;
};

object node:57 {
	phases ABCN;
	name 57;
	flags DELTAMODE;
	voltage_A 2401.7771;
	voltage_B -1200.8886-2080.000j;
	voltage_C -1200.8886+2080.000j;
	nominal_voltage 2401.7771;
	x -123;
	y -463;
};

object node:61 {
	phases ABCN;
	name 61;
	flags DELTAMODE;
	voltage_A 2401.7771;
	voltage_B -1200.8886-2080.000j;
	voltage_C -1200.8886+2080.000j;
	nominal_voltage 2401.7771;
	x 368;
	y -284;
};

object node:67 {
	phases ABCN;
	name 67;
	flags DELTAMODE;
	voltage_A 2401.7771;
	voltage_B -1200.8886-2080.000j;
	voltage_C -1200.8886+2080.000j;
	nominal_voltage 2401.7771;
	x 1171;
	y -630;
};

object node:6701 {
	phases ABCN;
	name 6701;
	flags DELTAMODE;
	voltage_A 2401.7771;
	voltage_B -1200.8886-2080.000j;
	voltage_C -1200.8886+2080.000j;
	nominal_voltage 2401.7771;
	x 852;
	y -571;
};

object load:72 {
	phases ABCN;
	name 72;
	flags DELTAMODE;
	voltage_A 2401.7771;
	voltage_B -1200.8886-2080.000j;
	voltage_C -1200.8886+2080.000j;
	nominal_voltage 2401.7771;
	x 1120;
	y -958;
};

object node:78 {
	phases ABCN;
	name 78;
	flags DELTAMODE;
	voltage_A 2401.7771;
	voltage_B -1200.8886-2080.000j;
	voltage_C -1200.8886+2080.000j;
	nominal_voltage 2401.7771;
	x 1384;
	y -1768;
};

object node:81 {
	phases ABCN;
	name 81;
	flags DELTAMODE;
	voltage_A 2401.7771;
	voltage_B -1200.8886-2080.000j;
	voltage_C -1200.8886+2080.000j;
	nominal_voltage 2401.7771;
	x 1768;
	y -2153;
};

object node:89 {
	phases ABCN;
	name 89;
	flags DELTAMODE;
	voltage_A 2401.7771;
	voltage_B -1200.8886-2080.000j;
	voltage_C -1200.8886+2080.000j;
	nominal_voltage 2401.7771;
	x 189;
	y -1367;
};

object node:91 {
	phases ABCN;
	name 91;
	flags DELTAMODE;
	voltage_A 2401.7771;
	voltage_B -1200.8886-2080.000j;
	voltage_C -1200.8886+2080.000j;
	nominal_voltage 2401.7771;
	x -81;
	y -1257;
};

object node:93 {
	phases ABCN;
	name 93;
	flags DELTAMODE;
	voltage_A 2401.7771;
	voltage_B -1200.8886-2080.000j;
	voltage_C -1200.8886+2080.000j;
	nominal_voltage 2401.7771;
	x -302;
	y -1058;
};

object node:97 {
	phases ABCN;
	name 97;
	flags DELTAMODE;
	voltage_A 2401.7771;
	voltage_B -1200.8886-2080.000j;
	voltage_C -1200.8886+2080.000j;
	nominal_voltage 2401.7771;
	x 1396;
	y -353;
};

object load:101 {
	phases ABCN;
	name 101;
	flags DELTAMODE;
	voltage_A 2401.7771;
	voltage_B -1200.8886-2080.000j;
	voltage_C -1200.8886+2080.000j;
	nominal_voltage 2401.7771;
	x 1557;
	y 301;
};

object node:105 {
	phases ABCN;
	name 105;
	bustype SWING_PQ;
	flags DELTAMODE;
	voltage_A 2401.7771;
	voltage_B -1200.8886-2080.000j;
	voltage_C -1200.8886+2080.000j;
	nominal_voltage 2401.7771;
	x 1616;
	y 636;
};

object node:108 {
	phases ABCN;
	name 108;
	flags DELTAMODE;
	voltage_A 2401.7771;
	voltage_B -1200.8886-2080.000j;
	voltage_C -1200.8886+2080.000j;
	nominal_voltage 2401.7771;
	x 1657;
	y 973;
};

object node:110 {
	phases AN;
	name 110;
	flags DELTAMODE;
	voltage_A 2401.7771;
	voltage_B -1200.8886-2080.000j;
	voltage_C -1200.8886+2080.000j;
	nominal_voltage 2401.7771;
	x 2169;
	y 1157;
};

object node:135 {
	phases ABCN;
	name 135;
	flags DELTAMODE;
	voltage_A 2401.7771;
	voltage_B -1200.8886-2080.000j;
	voltage_C -1200.8886+2080.000j;
	nominal_voltage 2401.7771;
	x -1191;
	y 551;
};

object node:149 {
	phases ABCN;
	name 149;
	flags DELTAMODE;
	voltage_A 2401.7771;
	voltage_B -1200.8886-2080.000j;
	voltage_C -1200.8886+2080.000j;
	nominal_voltage 2401.7771;
	x -2551;
	y 1022;
};

object node:1491 {
	phases ABCN;
	name 1491;
	flags DELTAMODE;
	voltage_A 2401.7771;
	voltage_B -1200.8886-2080.000j;
	voltage_C -1200.8886+2080.000j;
	nominal_voltage 2401.7771;
	x -2732;
	y 1197;
};

object node:150 {
	phases ABCN;
	name 150;
	bustype SWING;
	flags DELTAMODE;
	voltage_A 2401.7771;
	voltage_B -1200.8886-2080.000j;
	voltage_C -1200.8886+2080.000j;
	nominal_voltage 2401.7771;
	x -2908;
	y 1360;
};

object node:151 {
	phases ABCN;
	name 151;
	flags DELTAMODE;
	voltage_A 2401.7771;
	voltage_B -1200.8886-2080.000j;
	voltage_C -1200.8886+2080.000j;
	nominal_voltage 2401.7771;
	x 1222;
	y 1412;
};

object node:152 {
	phases ABCN;
	name 152;
	flags DELTAMODE;
	voltage_A 2401.7771;
	voltage_B -1200.8886-2080.000j;
	voltage_C -1200.8886+2080.000j;
	nominal_voltage 2401.7771;
	x -1215;
	y 275;
};

object node:160 {
	phases ABCN;
	name 160;
	flags DELTAMODE;
	voltage_A 2401.7771;
	voltage_B -1200.8886-2080.000j;
	voltage_C -1200.8886+2080.000j;
	nominal_voltage 2401.7771;
	x 530;
	y -519;
};

object node:195 {
	phases ABCN;
	name 195;
	flags DELTAMODE;
	voltage_A 2401.7771;
	voltage_B -1200.8886-2080.000j;
	voltage_C -1200.8886+2080.000j;
	nominal_voltage 2401.7771;
	x -713;
	y -1320;
};

object node:197 {
	phases ABCN;
	name 197;
	flags DELTAMODE;
	voltage_A 2401.7771;
	voltage_B -1200.8886-2080.000j;
	voltage_C -1200.8886+2080.000j;
	nominal_voltage 2401.7771;
	x 1494;
	y -32;
};

object node:250 {
	phases ABCN;
	name 250;
	flags DELTAMODE;
	voltage_A 2401.7771;
	voltage_B -1200.8886-2080.000j;
	voltage_C -1200.8886+2080.000j;
	nominal_voltage 2401.7771;
	x -2226;
	y -1402;
};

object node:251 {
	phases ABCN;
	name 251;
	flags DELTAMODE;
	voltage_A 2401.7771;
	voltage_B -1200.8886-2080.000j;
	voltage_C -1200.8886+2080.000j;
	nominal_voltage 2401.7771;
	x -2308;
	y -1624;
};

object meter:300 {
	phases ABCN;
	name 300;
	flags DELTAMODE;
	voltage_A 2401.7771;
	voltage_B -1200.8886-2080.000j;
	voltage_C -1200.8886+2080.000j;
	nominal_voltage 2401.7771;
	x 1491;
	y 1255;
};

object meter:3001 {
	phases ABCN;
	name 3001;
	flags DELTAMODE;
	voltage_A 2401.7771;
	voltage_B -1200.8886-2080.000j;
	voltage_C -1200.8886+2080.000j;
	nominal_voltage 2401.7771;
	x 1664;
	y 1444;
};

object node:350 {
	phases ABCN;
	name 350;
	flags DELTAMODE;
	voltage_A 2401.7771;
	voltage_B -1200.8886-2080.000j;
	voltage_C -1200.8886+2080.000j;
	nominal_voltage 2401.7771;
	x 1467;
	y 1496;
};

object node:450 {
	phases ABCN;
	name 450;
	flags DELTAMODE;
	voltage_A 2401.7771;
	voltage_B -1200.8886-2080.000j;
	voltage_C -1200.8886+2080.000j;
	nominal_voltage 2401.7771;
	x 2428;
	y -484;
};

object node:451 {
	phases ABCN;
	name 451;
	flags DELTAMODE;
	voltage_A 2401.7771;
	voltage_B -1200.8886-2080.000j;
	voltage_C -1200.8886+2080.000j;
	nominal_voltage 2401.7771;
	x 2660;
	y -545;
};

object node:610 {
	phases ABCN;
	name 610;
	voltage_A 480.000+0j;
	voltage_B -240.000-415.6922j;
	voltage_C -240.000+415.6922j;
	nominal_voltage 480.000;
	x 622;
	y 107;
};

object node:611 {
	phases ABCN;
	name 611;
	flags DELTAMODE;
	voltage_A 2401.7771;
	voltage_B -1200.8886-2080.000j;
	voltage_C -1200.8886+2080.000j;
	nominal_voltage 2401.7771;
	x 512;
	y -97;
};

object load:1 {
	name 1;
	phases ABCN;
	flags DELTAMODE;
	voltage_A 2401.7771;
	voltage_B -1200.8886-2080.000j;
	voltage_C -1200.8886+2080.000j;
	constant_power_A 40000+20000j;
	nominal_voltage 2401.7771;
	x -2351;
	y 851;
};

object load:2 {
	name 2;
	phases BN;
	flags DELTAMODE;
	voltage_A 2401.7771;
	voltage_B -1200.8886-2080.000j;
	voltage_C -1200.8886+2080.000j;
	constant_power_B 20000+10000j;
	nominal_voltage 2401.7771;
	x -2345;
	y 1089;
};

object load:4 {
	name 4;
	phases CN;
	flags DELTAMODE;
	voltage_A 2401.7771;
	voltage_B -1200.8886-2080.000j;
	voltage_C -1200.8886+2080.000j;
	constant_power_C 40000+20000j;
	nominal_voltage 2401.7771;
	x -2733;
	y 562;
};

object load:5 {
	name 5;
	phases CN;
	flags DELTAMODE;
	voltage_A 2401.7771;
	voltage_B -1200.8886-2080.000j;
	voltage_C -1200.8886+2080.000j;
	constant_current_C -0.557814+9.293330j;
	nominal_voltage 2401.7771;
	x -2856;
	y 783;
};

object load:6 {
	name 6;
	phases CN;
	flags DELTAMODE;
	voltage_A 2401.7771;
	voltage_B -1200.8886-2080.000j;
	voltage_C -1200.8886+2080.000j;
	constant_impedance_C 115.370667+57.685333j;
	nominal_voltage 2401.7771;
	x -3097;
	y 788;
};

object load:7 {
	name 7;
	phases ABCN;
	flags DELTAMODE;
	voltage_A 2401.7771;
	voltage_B -1200.8886-2080.000j;
	voltage_C -1200.8886+2080.000j;
	constant_power_A 20000+10000j;
	nominal_voltage 2401.7771;
	x -2063;
	y 773;
};

object load:9 {
	name 9;
	phases AN;
	flags DELTAMODE;
	voltage_A 2401.7771;
	voltage_B -1200.8886-2080.000j;
	voltage_C -1200.8886+2080.000j;
	constant_power_A 40000+20000j;
	nominal_voltage 2401.7771;
	x -1802;
	y 1008;
};

object load:10 {
	name 10;
	phases AN;
	flags DELTAMODE;
	voltage_A 2401.7771;
	voltage_B -1200.8886-2080.000j;
	voltage_C -1200.8886+2080.000j;
	constant_current_A 8.327167-4.163584j;
	nominal_voltage 2401.7771;
	x -1890;
	y 1749;
};

object load:11 {
	name 11;
	phases AN;
	flags DELTAMODE;
	voltage_A 2401.7771;
	voltage_B -1200.8886-2080.000j;
	voltage_C -1200.8886+2080.000j;
	constant_impedance_A 115.370667+57.685333j;
	nominal_voltage 2401.7771;
	x -2124;
	y 1683;
};

object load:12 {
	name 12;
	phases BN;
	flags DELTAMODE;
	voltage_A 2401.7771;
	voltage_B -1200.8886-2080.000j;
	voltage_C -1200.8886+2080.000j;
	constant_power_B 20000+10000j;
	nominal_voltage 2401.7771;
	x -1933;
	y 884;
};

object load:16 {
	name 16;
	phases CN;
	flags DELTAMODE;
	voltage_A 2401.7771;
	voltage_B -1200.8886-2080.000j;
	voltage_C -1200.8886+2080.000j;
	constant_power_C 40000+20000j;
	nominal_voltage 2401.7771;
	x -1258;
	y 1251;
};

object load:17 {
	name 17;
	phases CN;
	flags DELTAMODE;
	voltage_A 2401.7771;
	voltage_B -1200.8886-2080.000j;
	voltage_C -1200.8886+2080.000j;
	constant_power_C 20000+10000j;
	nominal_voltage 2401.7771;
	x -1474;
	y 1281;
};

object load:19 {
	name 19;
	phases AN;
	flags DELTAMODE;
	voltage_A 2401.7771;
	voltage_B -1200.8886-2080.000j;
	voltage_C -1200.8886+2080.000j;
	constant_power_A 40000+20000j;
	nominal_voltage 2401.7771;
	x -1673;
	y 320;
};

object load:20 {
	name 20;
	phases AN;
	flags DELTAMODE;
	voltage_A 2401.7771;
	voltage_B -1200.8886-2080.000j;
	voltage_C -1200.8886+2080.000j;
	constant_current_A 16.654335-8.327167j;
	nominal_voltage 2401.7771;
	x -1911;
	y 336;
};

object load:22 {
	name 22;
	phases BN;
	flags DELTAMODE;
	voltage_A 2401.7771;
	voltage_B -1200.8886-2080.000j;
	voltage_C -1200.8886+2080.000j;
	constant_impedance_B 115.370667+57.685333j;
	nominal_voltage 2401.7771;
	x -1862;
	y 46;
};

object load:24 {
	name 24;
	phases CN;
	flags DELTAMODE;
	voltage_A 2401.7771;
	voltage_B -1200.8886-2080.000j;
	voltage_C -1200.8886+2080.000j;
	constant_power_C 40000+20000j;
	nominal_voltage 2401.7771;
	x -2066;
	y -165;
};

object load:28 {
	name 28;
	phases ABCN;
	flags DELTAMODE;
	voltage_A 2401.7771;
	voltage_B -1200.8886-2080.000j;
	voltage_C -1200.8886+2080.000j;
	constant_current_A 16.654335-8.327167j;
	nominal_voltage 2401.7771;
	x -2041;
	y -675;
};

object load:29 {
	name 29;
	phases ABCN;
	flags DELTAMODE;
	voltage_A 2401.7771;
	voltage_B -1200.8886-2080.000j;
	voltage_C -1200.8886+2080.000j;
	constant_impedance_A 115.370667+57.685333j;
	nominal_voltage 2401.7771;
	x -2088;
	y -927;
};

object load:30 {
	name 30;
	phases ABCN;
	flags DELTAMODE;
	voltage_A 2401.7771;
	voltage_B -1200.8886-2080.000j;
	voltage_C -1200.8886+2080.000j;
	constant_power_C 40000+20000j;
	nominal_voltage 2401.7771;
	x -2151;
	y -1169;
};

object load:31 {
	name 31;
	phases CN;
	flags DELTAMODE;
	voltage_A 2401.7771;
	voltage_B -1200.8886-2080.000j;
	voltage_C -1200.8886+2080.000j;
	constant_power_C 20000+10000j;
	nominal_voltage 2401.7771;
	x -2680;
	y -784;
};

object load:32 {
	name 32;
	phases CN;
	flags DELTAMODE;
	voltage_A 2401.7771;
	voltage_B -1200.8886-2080.000j;
	voltage_C -1200.8886+2080.000j;
	constant_power_C 20000+10000j;
	nominal_voltage 2401.7771;
	x -2851;
	y -953;
};

object load:33 {
	name 33;
	phases AN;
	flags DELTAMODE;
	voltage_A 2401.7771;
	voltage_B -1200.8886-2080.000j;
	voltage_C -1200.8886+2080.000j;
	constant_current_A 16.654335-8.327167j;
	nominal_voltage 2401.7771;
	x -3009;
	y -512;
};

object load:34 {
	name 34;
	phases CN;
	flags DELTAMODE;
	voltage_A 2401.7771;
	voltage_B -1200.8886-2080.000j;
	voltage_C -1200.8886+2080.000j;
	constant_impedance_C 115.370667+57.685333j;
	nominal_voltage 2401.7771;
	x -1430;
	y 799;
};

object load:35 {
	name 35;
	phases ABCD;
	flags DELTAMODE;
	voltage_A 2401.7771;
	voltage_B -1200.8886-2080.000j;
	voltage_C -1200.8886+2080.000j;
	constant_power_A 40000+20000j;
	nominal_voltage 2401.7771;
	x -959;
	y 789;
};

object load:37 {
	name 37;
	phases AN;
	flags DELTAMODE;
	voltage_A 2401.7771;
	voltage_B -1200.8886-2080.000j;
	voltage_C -1200.8886+2080.000j;
	constant_impedance_A 115.370667+57.685333j;
	nominal_voltage 2401.7771;
	x -545;
	y 648;
};

object load:38 {
	name 38;
	phases BN;
	flags DELTAMODE;
	voltage_A 2401.7771;
	voltage_B -1200.8886-2080.000j;
	voltage_C -1200.8886+2080.000j;
	constant_current_B -7.769353-5.129747j;
	nominal_voltage 2401.7771;
	x -698;
	y 409;
};

object load:39 {
	name 39;
	phases BN;
	flags DELTAMODE;
	voltage_A 2401.7771;
	voltage_B -1200.8886-2080.000j;
	voltage_C -1200.8886+2080.000j;
	constant_power_B 20000+10000j;
	nominal_voltage 2401.7771;
	x -557;
	y 224;
};

object load:41 {
	name 41;
	phases CN;
	flags DELTAMODE;
	voltage_A 2401.7771;
	voltage_B -1200.8886-2080.000j;
	voltage_C -1200.8886+2080.000j;
	constant_power_C 20000+10000j;
	nominal_voltage 2401.7771;
	x -525;
	y 980;
};

object load:42 {
	name 42;
	phases ABCN;
	flags DELTAMODE;
	voltage_A 2401.7771;
	voltage_B -1200.8886-2080.000j;
	voltage_C -1200.8886+2080.000j;
	constant_power_A 20000+10000j;
	nominal_voltage 2401.7771;
	x -512;
	y 1272;
};

object load:43 {
	name 43;
	phases BN;
	flags DELTAMODE;
	voltage_A 2401.7771;
	voltage_B -1200.8886-2080.000j;
	voltage_C -1200.8886+2080.000j;
	constant_impedance_B 115.370667+57.685333j;
	nominal_voltage 2401.7771;
	x -607;
	y 1495;
};

object load:45 {
	name 45;
	phases AN;
	flags DELTAMODE;
	voltage_A 2401.7771;
	voltage_B -1200.8886-2080.000j;
	voltage_C -1200.8886+2080.000j;
	constant_current_A 8.327167-4.163584j;
	nominal_voltage 2401.7771;
	x -24;
	y 1369;
};

object load:46 {
	name 46;
	phases AN;
	flags DELTAMODE;
	voltage_A 2401.7771;
	voltage_B -1200.8886-2080.000j;
	voltage_C -1200.8886+2080.000j;
	constant_power_A 20000+10000j;
	nominal_voltage 2401.7771;
	x 162;
	y 1230;
};

object load:47 {
	name 47;
	phases ABCN;
	flags DELTAMODE;
	voltage_A 2401.7771;
	voltage_B -1200.8886-2080.000j;
	voltage_C -1200.8886+2080.000j;
	constant_current_A 14.572543-10.408959j;
	constant_current_B -16.300695-7.415713j;
	constant_current_C 1.728152+17.824672j;
	nominal_voltage 2401.7771;
	x 42;
	y 1579;
};

object load:48 {
	name 48;
	phases ABCN;
	flags DELTAMODE;
	voltage_A 2401.7771;
	voltage_B -1200.8886-2080.000j;
	voltage_C -1200.8886+2080.000j;
	constant_impedance_A 54.567207+38.976577j;
	constant_impedance_B 54.567207+38.976577j;
	constant_impedance_C 54.567207+38.976577j;
	nominal_voltage 2401.7771;
	x 257;
	y 1517;
};

object load:49 {
	name 49;
	phases ABCN;
	flags DELTAMODE;
	voltage_A 2401.7771;
	voltage_B -1200.8886-2080.000j;
	voltage_C -1200.8886+2080.000j;
	constant_power_A 35000+25000j;
	constant_power_B 70000+50000j;
	constant_power_C 35000+25000j;
	nominal_voltage 2401.7771;
	x 348;
	y 1645;
};

object meter:50 {
	name 50;
	phases ABCN;
	flags DELTAMODE;
	voltage_A 2401.7771;
	voltage_B -1200.8886-2080.000j;
	voltage_C -1200.8886+2080.000j;
	nominal_voltage 2401.7771;
	x 653;
	y 1626;
};

object load:51 {
	name 51;
	phases ABCN;
	flags DELTAMODE;
	voltage_A 2401.7771;
	voltage_B -1200.8886-2080.000j;
	voltage_C -1200.8886+2080.000j;
	constant_power_A 20000+10000j;
	nominal_voltage 2401.7771;
	x 946;
	y 1544;
};

object load:52 {
	name 52;
	phases ABCN;
	flags DELTAMODE;
	voltage_A 2401.7771;
	voltage_B -1200.8886-2080.000j;
	voltage_C -1200.8886+2080.000j;
	constant_power_A 40000+20000j;
	nominal_voltage 2401.7771;
	x -967;
	y 20;
};

object load:53 {
	name 53;
	phases ABCN;
	flags DELTAMODE;
	voltage_A 2401.7771;
	voltage_B -1200.8886-2080.000j;
	voltage_C -1200.8886+2080.000j;
	constant_power_A 40000+20000j;
	nominal_voltage 2401.7771;
	x -711;
	y -223;
};

object load:55 {
	name 55;
	phases ABCN;
	flags DELTAMODE;
	voltage_A 2401.7771;
	voltage_B -1200.8886-2080.000j;
	voltage_C -1200.8886+2080.000j;
	constant_impedance_A 230.741333+115.370667j;
	nominal_voltage 2401.7771;
	x -667;
	y -577;
};

object load:56 {
	name 56;
	phases ABCN;
	flags DELTAMODE;
	voltage_A 2401.7771;
	voltage_B -1200.8886-2080.000j;
	voltage_C -1200.8886+2080.000j;
	constant_power_B 20000+10000j;
	nominal_voltage 2401.7771;
	x -869;
	y -704;
};

object load:58 {
	name 58;
	phases BN;
	flags DELTAMODE;
	voltage_A 2401.7771;
	voltage_B -1200.8886-2080.000j;
	voltage_C -1200.8886+2080.000j;
	constant_current_B -7.769353-5.129747j;
	nominal_voltage 2401.7771;
	x -93;
	y -692;
};

object load:59 {
	name 59;
	phases BN;
	flags DELTAMODE;
	voltage_A 2401.7771;
	voltage_B -1200.8886-2080.000j;
	voltage_C -1200.8886+2080.000j;
	constant_power_B 20000+10000j;
	nominal_voltage 2401.7771;
	x -7;
	y -905;
};

object load:60 {
	name 60;
	phases ABCN;
	flags DELTAMODE;
	voltage_A 2401.7771;
	voltage_B -1200.8886-2080.000j;
	voltage_C -1200.8886+2080.000j;
	constant_power_A 20000+10000j;
	nominal_voltage 2401.7771;
	x 205;
	y -459;
};

object load:62 {
	name 62;
	phases ABCN;
	flags DELTAMODE;
	voltage_A 2401.7771;
	voltage_B -1200.8886-2080.000j;
	voltage_C -1200.8886+2080.000j;
	constant_impedance_C 115.370667+57.685333j;
	nominal_voltage 2401.7771;
	x 95;
	y -242;
};

object load:63 {
	name 63;
	phases ABCN;
	flags DELTAMODE;
	voltage_A 2401.7771;
	voltage_B -1200.8886-2080.000j;
	voltage_C -1200.8886+2080.000j;
	constant_power_A 40000+20000j;
	nominal_voltage 2401.7771;
	x 22;
	y -14;
};

object load:64 {
	name 64;
	phases ABCN;
	flags DELTAMODE;
	voltage_A 2401.7771;
	voltage_B -1200.8886-2080.000j;
	voltage_C -1200.8886+2080.000j;
	constant_current_B -28.233631-19.756998j;
	nominal_voltage 2401.7771;
	x 47;
	y 220;
};

object load:65 {
	name 65;
	phases ABCD;
	flags DELTAMODE;
	voltage_A 2401.7771;
	voltage_B -1200.8886-2080.000j;
	voltage_C -1200.8886+2080.000j;
	constant_impedance_A 327.403243+233.859459j;
	constant_impedance_B 327.403243+233.859459j;
	constant_impedance_C 327.403243+233.859459j;
	nominal_voltage 2401.7771;
	x 138;
	y 436;
};

object meter:66 {
	name 66;
	phases ABC;
	flags DELTAMODE;
	voltage_A 2401.7771;
	voltage_B -1200.8886-2080.000j;
	voltage_C -1200.8886+2080.000j;
	nominal_voltage 2401.7771;
	x 267;
	y 629;
};

object load:68 {
	name 68;
	phases AN;
	flags DELTAMODE;
	voltage_A 2401.7771;
	voltage_B -1200.8886-2080.000j;
	voltage_C -1200.8886+2080.000j;
	constant_power_A 20000+10000j;
	nominal_voltage 2401.7771;
	x 1401;
	y -752;
};

object load:69 {
	name 69;
	phases AN;
	flags DELTAMODE;
	voltage_A 2401.7771;
	voltage_B -1200.8886-2080.000j;
	voltage_C -1200.8886+2080.000j;
	constant_power_A 40000+20000j;
	nominal_voltage 2401.7771;
	x 1621;
	y -879;
};

object load:70 {
	name 70;
	phases AN;
	flags DELTAMODE;
	voltage_A 2401.7771;
	voltage_B -1200.8886-2080.000j;
	voltage_C -1200.8886+2080.000j;
	constant_power_A 20000+10000j;
	nominal_voltage 2401.7771;
	x 1836;
	y -1001;
};

object load:71 {
	name 71;
	phases AN;
	flags DELTAMODE;
	voltage_A 2401.7771;
	voltage_B -1200.8886-2080.000j;
	voltage_C -1200.8886+2080.000j;
	constant_power_A 40000+20000j;
	nominal_voltage 2401.7771;
	x 2045;
	y -1116;
};

object load:73 {
	name 73;
	phases CN;
	flags DELTAMODE;
	voltage_A 2401.7771;
	voltage_B -1200.8886-2080.000j;
	voltage_C -1200.8886+2080.000j;
	constant_power_C 40000+20000j;
	nominal_voltage 2401.7771;
	x 898;
	y -1005;
};

object load:74 {
	name 74;
	phases CN;
	flags DELTAMODE;
	voltage_A 2401.7771;
	voltage_B -1200.8886-2080.000j;
	voltage_C -1200.8886+2080.000j;
	constant_impedance_C 115.370667+57.685333j;
	nominal_voltage 2401.7771;
	x 672;
	y -962;
};

object load:75 {
	name 75;
	phases CN;
	flags DELTAMODE;
	voltage_A 2401.7771;
	voltage_B -1200.8886-2080.000j;
	voltage_C -1200.8886+2080.000j;
	constant_power_C 40000+20000j;
	nominal_voltage 2401.7771;
	x 506;
	y -1120;
};

object load:76 {
	name 76;
	phases ABCD;
	flags DELTAMODE;
	voltage_A 2401.7771;
	voltage_B -1200.8886-2080.000j;
	voltage_C -1200.8886+2080.000j;
	constant_current_A 31.474199-4.034142j;
	constant_current_B -12.019231-16.826923j;
	constant_current_C -8.562927+18.822421j;
	nominal_voltage 2401.7771;
	x 1050;
	y -1281;
};

object load:77 {
	name 77;
	phases ABCN;
	flags DELTAMODE;
	voltage_A 2401.7771;
	voltage_B -1200.8886-2080.000j;
	voltage_C -1200.8886+2080.000j;
	constant_power_B 40000+20000j;
	nominal_voltage 2401.7771;
	x 1232;
	y -1519;
};

object load:79 {
	name 79;
	phases ABCN;
	flags DELTAMODE;
	voltage_A 2401.7771;
	voltage_B -1200.8886-2080.000j;
	voltage_C -1200.8886+2080.000j;
	constant_impedance_A 115.370667+57.685333j;
	nominal_voltage 2401.7771;
	x 1262;
	y -1971;
};

object load:80 {
	name 80;
	phases ABCN;
	flags DELTAMODE;
	voltage_A 2401.7771;
	voltage_B -1200.8886-2080.000j;
	voltage_C -1200.8886+2080.000j;
	constant_power_B 40000+20000j;
	nominal_voltage 2401.7771;
	x 1549;
	y -1998;
};

object load:82 {
	name 82;
	phases ABCN;
	flags DELTAMODE;
	voltage_A 2401.7771;
	voltage_B -1200.8886-2080.000j;
	voltage_C -1200.8886+2080.000j;
	constant_power_A 40000+20000j;
	nominal_voltage 2401.7771;
	x 1851;
	y -2388;
};

object load:83 {
	name 83;
	phases ABCN;
	flags DELTAMODE;
	voltage_A 2401.7771;
	voltage_B -1200.8886-2080.000j;
	voltage_C -1200.8886+2080.000j;
	constant_power_C 20000+10000j;
	constant_impedance_A 0.00-28.8427j;
	constant_impedance_B 0.00-28.8427j;
	constant_impedance_C 0.00-28.8427j;
	nominal_voltage 2401.7771;
	x 1943;
	y -2610;
};

object load:84 {
	name 84;
	phases CN;
	flags DELTAMODE;
	voltage_A 2401.7771;
	voltage_B -1200.8886-2080.000j;
	voltage_C -1200.8886+2080.000j;
	constant_power_C 20000+10000j;
	nominal_voltage 2401.7771;
	x 2015;
	y -2169;
};

object load:85 {
	name 85;
	phases CN;
	flags DELTAMODE;
	voltage_A 2401.7771;
	voltage_B -1200.8886-2080.000j;
	voltage_C -1200.8886+2080.000j;
	constant_power_C 40000+20000j;
	nominal_voltage 2401.7771;
	x 2248;
	y -2223;
};

object load:86 {
	name 86;
	phases ABCN;
	flags DELTAMODE;
	voltage_A 2401.7771;
	voltage_B -1200.8886-2080.000j;
	voltage_C -1200.8886+2080.000j;
	constant_power_B 20000+10000j;
	nominal_voltage 2401.7771;
	x 764;
	y -1363;
};

object load:87 {
	name 87;
	phases ABCN;
	flags DELTAMODE;
	voltage_A 2401.7771;
	voltage_B -1200.8886-2080.000j;
	voltage_C -1200.8886+2080.000j;
	constant_power_B 40000+20000j;
	nominal_voltage 2401.7771;
	x 475;
	y -1420;
};

object load:88 {
	name 88;
	phases AN;
	flags DELTAMODE;
	voltage_A 2401.7771;
	voltage_B -1200.8886-2080.000j;
	voltage_C -1200.8886+2080.000j;
	constant_power_A 40000+20000j;
	constant_impedance_A 0.00-115.7067j;
	nominal_voltage 2401.7771;
	x 429;
	y -1659;
};

object load:90 {
	name 90;
	phases BN;
	flags DELTAMODE;
	voltage_A 2401.7771;
	voltage_B -1200.8886-2080.000j;
	voltage_C -1200.8886+2080.000j;
	constant_current_B -15.538706-10.259493j;
	constant_impedance_B 0.00-115.7067j;
	nominal_voltage 2401.7771;
	x 197;
	y -1141;
};

object load:92 {
	name 92;
	phases CN;
	flags DELTAMODE;
	voltage_A 2401.7771;
	voltage_B -1200.8886-2080.000j;
	voltage_C -1200.8886+2080.000j;
	constant_power_C 40000+20000j;
	constant_impedance_C 0.00-115.7067j;
	nominal_voltage 2401.7771;
	x -147;
	y -1490;
};

object load:94 {
	name 94;
	phases AN;
	flags DELTAMODE;
	voltage_A 2401.7771;
	voltage_B -1200.8886-2080.000j;
	voltage_C -1200.8886+2080.000j;
	constant_power_A 40000+20000j;
	nominal_voltage 2401.7771;
	x -389;
	y -765;
};

object load:95 {
	name 95;
	phases ABCN;
	flags DELTAMODE;
	voltage_A 2401.7771;
	voltage_B -1200.8886-2080.000j;
	voltage_C -1200.8886+2080.000j;
	constant_power_B 20000+10000j;
	nominal_voltage 2401.7771;
	x -483;
	y -1247;
};

object load:96 {
	name 96;
	phases BN;
	flags DELTAMODE;
	voltage_A 2401.7771;
	voltage_B -1200.8886-2080.000j;
	voltage_C -1200.8886+2080.000j;
	constant_power_B 20000+10000j;
	nominal_voltage 2401.7771;
	x -546;
	y -1482;
};

object load:98 {
	name 98;
	phases ABCN;
	flags DELTAMODE;
	voltage_A 2401.7771;
	voltage_B -1200.8886-2080.000j;
	voltage_C -1200.8886+2080.000j;
	constant_power_A 40000+20000j;
	nominal_voltage 2401.7771;
	x 1669;
	y -369;
};

object load:99 {
	name 99;
	phases ABCN;
	flags DELTAMODE;
	voltage_A 2401.7771;
	voltage_B -1200.8886-2080.000j;
	voltage_C -1200.8886+2080.000j;
	constant_power_B 40000.000000+20000.000000j;
	nominal_voltage 2401.7771;
	x 1937;
	y -380;
};

object load:100 {
	name 100;
	phases ABCN;
	flags DELTAMODE;
	voltage_A 2401.7771;
	voltage_B -1200.8886-2080.000j;
	voltage_C -1200.8886+2080.000j;
	constant_impedance_C 115.370667+57.685333j;
	nominal_voltage 2401.7771;
	x 2198;
	y -390;
};

object load:102 {
	name 102;
	phases CN;
	flags DELTAMODE;
	voltage_A 2401.7771;
	voltage_B -1200.8886-2080.000j;
	voltage_C -1200.8886+2080.000j;
	constant_power_C 20000+10000j;
	nominal_voltage 2401.7771;
	x 1335;
	y 384;
};

object load:103 {
	name 103;
	phases CN;
	flags DELTAMODE;
	voltage_A 2401.7771;
	voltage_B -1200.8886-2080.000j;
	voltage_C -1200.8886+2080.000j;
	constant_power_C 40000+20000j;
	nominal_voltage 2401.7771;
	x 1101;
	y 427;
};

object load:104 {
	name 104;
	phases CN;
	flags DELTAMODE;
	voltage_A 2401.7771;
	voltage_B -1200.8886-2080.000j;
	voltage_C -1200.8886+2080.000j;
	constant_power_C 40000+20000j;
	nominal_voltage 2401.7771;
	x 883;
	y 512;
};

object load:106 {
	name 106;
	phases BN;
	flags DELTAMODE;
	frequency_measure_type PLL;
	voltage_A 2401.7771;
	voltage_B -1200.8886-2080.000j;
	voltage_C -1200.8886+2080.000j;
	constant_power_B 40000+20000j;
	nominal_voltage 2401.7771;
	x 1547;
	y 854;
};

object load:107 {
	name 107;
	phases BN;
	flags DELTAMODE;
	frequency_measure_type PLL;
	voltage_A 2401.7771;
	voltage_B -1200.8886-2080.000j;
	voltage_C -1200.8886+2080.000j;
	constant_power_B 40000+20000j;
	nominal_voltage 2401.7771;
	x 1400;
	y 1035;
};

object load:109 {
	name 109;
	phases AN;
	flags DELTAMODE;
	frequency_measure_type PLL;
	voltage_A 2401.7771;
	voltage_B -1200.8886-2080.000j;
	voltage_C -1200.8886+2080.000j;
	constant_power_A 40000+20000j;
	nominal_voltage 2401.7771;
	x 1920;
	y 1060;
};

object load:111 {
	name 111;
	phases AN;
	flags DELTAMODE;
	voltage_A 2401.7771;
	voltage_B -1200.8886-2080.000j;
	voltage_C -1200.8886+2080.000j;
	constant_power_A 20000+10000j;
	nominal_voltage 2401.7771;
	x 2255;
	y 1381;
};

object load:112 {
	name 112;
	phases AN;
	flags DELTAMODE;
	voltage_A 2401.7771;
	voltage_B -1200.8886-2080.000j;
	voltage_C -1200.8886+2080.000j;
	constant_current_A 8.327167-4.163584j;
	nominal_voltage 2401.7771;
	x 2422;
	y 1188;
};

object load:113 {
	name 113;
	phases AN;
	flags DELTAMODE;
	voltage_A 2401.7771;
	voltage_B -1200.8886-2080.000j;
	voltage_C -1200.8886+2080.000j;
	constant_impedance_A 115.370667+57.685333j;
	nominal_voltage 2401.7771;
	x 2658;
	y 1256;
};

object load:114 {
	name 114;
	phases AN;
	flags DELTAMODE;
	voltage_A 2401.7771;
	voltage_B -1200.8886-2080.000j;
	voltage_C -1200.8886+2080.000j;
	constant_power_A 20000+10000j;
	nominal_voltage 2401.7771;
	x 2882;
	y 1336;
};

object switch:13152 {
	phases ABCN;
	name 13-152;
	from meter:13;
	to node:152;
	status CLOSED;
};

object switch:18135 {
	phases ABCN;
	name microgrid_switch1;
	from node:18;
	to node:135;
	status CLOSED;
	object recorder {
		file microgrid_switch1.csv;
		property phase_A_state,phase_B_state,phase_C_state;
		flags DELTAMODE;
		interval 1;
	}
};

object switch:60160 {
	phases ABCN;
	name microgrid_switch3;
	from load:60;
	to node:160;
	status CLOSED;
	object recorder {
		file microgrid_switch3.csv;
		property phase_A_state,phase_B_state,phase_C_state;
		flags DELTAMODE;
		interval 1;
	}
};

object switch:61611 {
	phases ABCN;
	name 61-611;
	from node:61;
	to node:611;
	status CLOSED;
};

object switch:97197 {
	phases ABCN;
	name microgrid_switch2;
	from node:97;
	to node:197;
	status CLOSED;
	object recorder {
		file microgrid_switch2.csv;
		property phase_A_state,phase_B_state,phase_C_state;
		flags DELTAMODE;
		interval 1;
	}
};

object switch:1491149 {
	phases ABCN;
	name 1491-149;
	from node:1491;
	to node:149;
	status CLOSED;
};

object switch:250251 {
	phases ABCN;
	name 250-251;
	from node:250;
	to node:251;
	status OPEN;
};

object switch:450451 {
	phases ABCN;
	name 450-451;
	from node:450;
	to node:451;
	status OPEN;
};

object switch:5494 {
	phases AN;
	name 54-94;
	from node:54;
	to load:94;
	status OPEN;
};

object switch:151300 {
	phases ABCN;
	name microgrid_switch4;
	from node:151;
	to meter:300;
	status OPEN;
	object recorder {
		file microgrid_switch4.csv;
		property phase_A_state,phase_B_state,phase_C_state;
		flags DELTAMODE;
		interval 1;
	}
};

object switch:300350 {
	phases ABCN;
	name 300-350;
	from meter:300;
	to node:350;
	status OPEN;
};

object switch:95195 {
	phases ABCN;
	name 95-195;
	from load:95;
	to node:195;
	status CLOSED;
};

object switch:3003001 {
	phases ABCN;
	name Diesel_Switch_1;
	from meter:3001;
	to meter:300;
	status CLOSED;
	object recorder {
		property power_out_real;
		flags DELTAMODE;
		interval 1;
		file Gen_3_power.csv;
	}
};

object transformer_configuration:400 {
	connect_type DELTA_DELTA;
	install_type PADMOUNT;
	power_rating 150;
	primary_voltage 4160;
	secondary_voltage 480;
	resistance 0.0127;
	reactance 0.0272;
};

object transformer:611610 {
	phases ABCN;
	name 611-610;
	from node:611;
	to node:610;
	configuration transformer_configuration:400;
};

object regulator_configuration:1501490 {
	connect_type 1;
	band_center 120.000;
	band_width 2.0;
	time_delay 30.0;
	raise_taps 16;
	lower_taps 16;
	current_transducer_ratio 700;
	power_transducer_ratio 20;
	compensator_r_setting_A 3.0;
	compensator_x_setting_A 7.5;
	compensator_r_setting_B 3.0;
	compensator_x_setting_B 7.5;
	compensator_r_setting_C 3.0;
	compensator_x_setting_C 7.5;
	CT_phase ABC;
	PT_phase ABC;
	regulation 0.10;
	Control MANUAL;
	Type A;
	tap_pos_A 7;
	tap_pos_B 7;
	tap_pos_C 7;
};

object regulator:1501491 {
	phases ABC;
	from node:150;
	to node:1491;
	configuration regulator_configuration:1501490;
};

object regulator_configuration:2526010 {
	connect_type 1;
	band_center 120.000;
	band_width 1.0;
	time_delay 30.0;
	raise_taps 16;
	lower_taps 16;
	current_transducer_ratio 50;
	power_transducer_ratio 20;
	compensator_r_setting_A 0.4;
	compensator_x_setting_A 0.4;
	compensator_r_setting_C 0.4;
	compensator_x_setting_C 0.4;
	CT_phase AC;
	PT_phase AC;
	regulation 0.10;
	Control MANUAL;
	Type A;
	tap_pos_A 0;
	tap_pos_C -1;
};

object regulator:252601 {
	phases AC;
	from node:25;
	to node:2601;
	configuration regulator_configuration:2526010;
};

object regulator_configuration:914010 {
	connect_type 1;
	band_center 120.000;
	band_width 2.0;
	time_delay 30.0;
	raise_taps 16;
	lower_taps 16;
	current_transducer_ratio 50;
	power_transducer_ratio 20;
	compensator_r_setting_A 0.4;
	compensator_x_setting_A 0.4;
	CT_phase A;
	PT_phase A;
	regulation 0.10;
	Control MANUAL;
	Type A;
	tap_pos_A -1;
};

object regulator:91401 {
	phases A;
	from load:9;
	to node:1401;
	configuration regulator_configuration:914010;
};

object regulator_configuration:16067010 {
	connect_type 1;
	band_center 124.000;
	band_width 2.0;
	time_delay 30.0;
	raise_taps 16;
	lower_taps 16;
	current_transducer_ratio 300;
	power_transducer_ratio 20;
	CT_phase ABC;
	PT_phase ABC;
	regulation 0.10;
	Control MANUAL;
	Type A;
	tap_pos_A 8;
	tap_pos_B 1;
	tap_pos_C 5;
};

object regulator:1606701 {
	phases ABC;
	from node:160;
	to node:6701;
	configuration regulator_configuration:16067010;
};

object player {
	file trigger.player;
	property nominal_voltage;
	parent 150;
	flags DELTAMODE;
};

object recorder {
	parent 151;
	flags DELTAMODE;
	file Voltage_151.csv;
	interval 1;
	limit 10000000;
	property voltage_A.real,voltage_A.imag,voltage_B.real,voltage_B.imag,voltage_C.real,voltage_C.imag;
};

object recorder {
	parent 97;
	flags DELTAMODE;
	file Voltage_97.csv;
	interval 1;
	limit 10000000;
	property voltage_A.real,voltage_A.imag,voltage_B.real,voltage_B.imag,voltage_C.real,voltage_C.imag;
};

object group_recorder {
	flags DELTAMODE;
	name loads_voltages_A_recorder;
	group class=load;
	property voltage_A;
	file loads_volts_A.csv;
	interval 1;
	limit 10000000;
};

object group_recorder {
	flags DELTAMODE;
	name loads_voltages_B_recorder;
	group class=load;
	property voltage_B;
	file loads_volts_B.csv;
	interval 1;
	limit 10000000;
};

object group_recorder {
	flags DELTAMODE;
	name loads_voltages_C_recorder;
	group class=load;
	property voltage_C;
	file loads_volts_C.csv;
	interval 1;
	limit 10000000;
};

